[General]
network = CRan
sim-time-limit = 86400s
repeat = 10
seed-set = ${repetition}

[Config lognormal]
**.as.exponentialDistribution = false

[Config ten-remote-radio]
**.numRRH = 10

[Config exponential-compression]
**.bbu.enableCompression = true

[Config lognormal-compression]
extends = lognormal
**.bbu.enableCompression = true