[General]
network = CRan
sim-time-limit = 172800s
repeat = 10
seed-set = ${repetition}

[Config lognormal]
**.as.exponentialDistribution = false

[Config exponential-compression]
**.bbu.enableCompression = true

[Config lognormal-compression]
extends = lognormal
**.bbu.enableCompression = true