[General]
network = CRan
sim-time-limit = 86400s
**.bbu.speed = 5000
**.as.interArrivalTime = 360ms

[Config compression]
**.bbu.enableCompression = true

[Config compression-30]
extends = compression
**.compressionPercentage = 30