[General]
network = CRan
sim-time-limit = 10s

[Config compression]
**.bbu.enableCompression = true